Data/networks/opendssNetworks/network_5/Feeder_8/Loads - Copy.txt
New Load.LOAD1 Phases=1 Bus1=48.3 kV=0.23 kW=1 PF=0.95
New Load.LOAD2 Phases=1 Bus1=55.1 kV=0.23 kW=1 PF=0.95
New Load.LOAD3 Phases=1 Bus1=100.1 kV=0.23 kW=1 PF=0.95
New Load.LOAD4 Phases=1 Bus1=111.2 kV=0.23 kW=1 PF=0.95
New Load.LOAD5 Phases=1 Bus1=120.3 kV=0.23 kW=1 PF=0.95
New Load.LOAD6 Phases=1 Bus1=125.2 kV=0.23 kW=1 PF=0.95
New Load.LOAD7 Phases=1 Bus1=148.1 kV=0.23 kW=1 PF=0.95
New Load.LOAD8 Phases=1 Bus1=150.1 kV=0.23 kW=1 PF=0.95
New Load.LOAD9 Phases=1 Bus1=161.1 kV=0.23 kW=1 PF=0.95
New Load.LOAD10 Phases=1 Bus1=164.3 kV=0.23 kW=1 PF=0.95
New Load.LOAD11 Phases=1 Bus1=171.1 kV=0.23 kW=1 PF=0.95
New Load.LOAD12 Phases=1 Bus1=178.1 kV=0.23 kW=1 PF=0.95
New Load.LOAD13 Phases=1 Bus1=190.1 kV=0.23 kW=1 PF=0.95
New Load.LOAD14 Phases=1 Bus1=193.2 kV=0.23 kW=1 PF=0.95
New Load.LOAD15 Phases=1 Bus1=201.2 kV=0.23 kW=1 PF=0.95
New Load.LOAD16 Phases=1 Bus1=204.3 kV=0.23 kW=1 PF=0.95
New Load.LOAD17 Phases=1 Bus1=232.3 kV=0.23 kW=1 PF=0.95
New Load.LOAD18 Phases=1 Bus1=245.1 kV=0.23 kW=1 PF=0.95
New Load.LOAD19 Phases=1 Bus1=261.3 kV=0.23 kW=1 PF=0.95
New Load.LOAD20 Phases=1 Bus1=277.2 kV=0.23 kW=1 PF=0.95
New Load.LOAD21 Phases=1 Bus1=278.1 kV=0.23 kW=1 PF=0.95
New Load.LOAD22 Phases=1 Bus1=308.1 kV=0.23 kW=1 PF=0.95
New Load.LOAD23 Phases=1 Bus1=315.2 kV=0.23 kW=1 PF=0.95
New Load.LOAD24 Phases=1 Bus1=326.3 kV=0.23 kW=1 PF=0.95
New Load.LOAD25 Phases=1 Bus1=349.1 kV=0.23 kW=1 PF=0.95
New Load.LOAD26 Phases=1 Bus1=355.2 kV=0.23 kW=1 PF=0.95
New Load.LOAD27 Phases=1 Bus1=361.3 kV=0.23 kW=1 PF=0.95
New Load.LOAD28 Phases=1 Bus1=366.1 kV=0.23 kW=1 PF=0.95
New Load.LOAD29 Phases=1 Bus1=383.2 kV=0.23 kW=1 PF=0.95
New Load.LOAD30 Phases=1 Bus1=389.2 kV=0.23 kW=1 PF=0.95
New Load.LOAD31 Phases=1 Bus1=411.1 kV=0.23 kW=1 PF=0.95
New Load.LOAD32 Phases=1 Bus1=418.3 kV=0.23 kW=1 PF=0.95
New Load.LOAD33 Phases=1 Bus1=430.2 kV=0.23 kW=1 PF=0.95
New Load.LOAD34 Phases=1 Bus1=434.3 kV=0.23 kW=1 PF=0.95
New Load.LOAD35 Phases=1 Bus1=438.1 kV=0.23 kW=1 PF=0.95
New Load.LOAD36 Phases=1 Bus1=446.2 kV=0.23 kW=1 PF=0.95
New Load.LOAD37 Phases=1 Bus1=454.1 kV=0.23 kW=1 PF=0.95
New Load.LOAD38 Phases=1 Bus1=461.3 kV=0.23 kW=1 PF=0.95
